@<TRIPOS>MOLECULE 
HYB 
45 49
SMALL 
NO_CHARGES 

@<TRIPOS>ATOM 
1 C10 -1.6780 -1.1500 8.5470 c3 1 HYB 0.011300 
2 C11 -1.5640 0.3050 9.0520 c3 1 HYB -0.096900 
3 C12 -1.7190 1.3720 7.9590 c3 1 HYB 0.117900 
4 C13 -4.0220 1.6530 7.3050 ca 1 HYB 0.140600 
5 C14 -6.6560 2.6120 7.7640 ca 1 HYB -0.185500 
6 C15 -5.9590 1.9390 8.7820 ca 1 HYB -0.072500 
7 C16 -4.6530 1.4710 8.5600 ca 1 HYB -0.206500 
8 C17 -6.0420 2.8030 6.5070 ca 1 HYB -0.014000 
9 C18 -4.7280 2.3160 6.2710 ca 1 HYB -0.061500 
10 C19 -4.1370 2.5140 5.0020 ca 1 HYB -0.084500 
11 C20 -4.8480 3.1630 3.9740 ca 1 HYB -0.165000 
12 C21 -6.1560 3.6320 4.2070 ca 1 HYB -0.132500 
13 C22 -6.7470 3.4580 5.4740 ca 1 HYB -0.133000 
14 C23 -0.7400 -3.8170 10.0150 c 1 HYB 0.937800 
15 C24 -2.0610 -3.6530 9.3590 cc 1 HYB 0.028400 
16 C25 -4.1940 -4.1710 9.0140 ca 1 HYB 0.043600 
17 C26 -5.4690 -4.7620 9.0840 ca 1 HYB -0.120000 
18 C28 -6.2560 -3.1130 7.4720 ca 1 HYB -0.159500 
19 C30 -3.9010 -3.0540 8.1910 ca 1 HYB -0.080800 
20 C31 -2.5150 -2.7470 8.4160 cd 1 HYB -0.176400 
21 C7 -4.6540 -2.2870 7.4690 ca 1 HYB -0.100000 
22 H10 -1.8050 2.3640 8.3940 h1 1 HYB 0.074450 
23 H11 -4.1740 0.9190 9.3480 ha 1 HYB 0.214000 
24 H12 -3.1370 2.1650 4.7970 ha 1 HYB 0.143500 
25 H13 -4.3800 3.2990 3.0090 ha 1 HYB 0.118000 
26 H14 -6.7030 4.1260 3.4170 ha 1 HYB 0.115500 
27 H15 -7.7500 3.8190 5.6510 ha 1 HYB 0.121000 
28 H16 -6.4320 1.7680 9.7370 ha 1 HYB 0.142000 
29 H17 -7.6580 2.9620 7.9460 ha 1 HYB 0.120500 
30 H2 -4.5250 -1.3600 6.9300 ha 1 HYB 0.128500 
31 H40 -7.0460 -2.7600 6.8260 ha 1 HYB 0.120000 
32 H42 -5.6350 -5.6140 9.7270 ha 1 HYB 0.145500 
33 H5 -1.8690 -1.1740 7.4760 hc 1 HYB 0.046200 
34 H6 -0.7110 -1.6490 8.6680 hc 1 HYB 0.046200 
35 H7 -0.5900 0.4440 9.5200 hc 1 HYB 0.048450 
36 H8 -2.2690 0.4830 9.8590 hc 1 HYB 0.048450 
37 H9 -0.8050 1.3750 7.3780 h1 1 HYB 0.074450 
38 O3 -2.7770 1.1360 7.0310 os 1 HYB -0.349900 
39 O5 -0.5570 -4.7830 10.7970 o 1 HYB -0.800800 
40 O6 0.1720 -2.9930 9.7850 o 1 HYB -0.800800 
41 O8 -3.0610 -4.5370 9.7120 os 1 HYB -0.166700 
42 C27 -6.5130 -4.2240 8.3060 ca 1 HYB 0.033150 
43 CL41 -8.0940 -4.9240 8.3770 cl 1 HYB -0.112650 
44 C50 -6.5130 -4.2240 8.3060 ca 1 HYB -0.168750 
45 H57 -7.5000 -4.6610 8.3500 ha 1 HYB 0.089250 

@<TRIPOS>BOND 
1 1 2 1
2 1 20 1
3 1 33 1
4 1 34 1
5 2 3 1
6 2 35 1
7 2 36 1
8 3 22 1
9 3 37 1
10 3 38 1
11 4 7 ar
12 4 9 ar
13 4 38 1
14 5 6 ar
15 5 8 ar
16 5 29 1
17 6 7 ar
18 6 28 1
19 7 23 1
20 8 9 ar
21 8 13 ar
22 9 10 ar
23 10 11 ar
24 10 24 1
25 11 12 ar
26 11 25 1
27 12 13 ar
28 12 26 1
29 13 27 1
30 14 15 1
31 14 39 1
32 14 40 1
33 15 20 2
34 15 41 1
35 16 17 ar
36 16 19 ar
37 16 41 1
38 17 32 1
39 17 42 a
40 17 44 a
41 18 21 ar
42 18 31 1
43 18 42 a
44 18 44 a
45 19 20 1
46 19 21 ar
47 21 30 1
48 42 43 1
49 44 45 1
